
  -INDIGO-11062014182D

 25 29  0  0  0  0  0  0  0  0999 V2000
    6.4765   -0.0188    0.0000 C   0  0  0  0  0  0  0  0  0  0  0  0
    2.5531   -2.2715    0.0000 O   0  0  0  0  0  0  0  0  0  0  0  0
    5.7819   -6.2606    0.0000 O   0  0  0  0  0  0  0  0  0  0  0  0
    1.5581   -7.3401    0.0000 C   0  0  0  0  0  0  0  0  0  0  0  0
    5.9008   -1.0012    0.0000 C   0  0  0  0  0  0  0  0  0  0  0  0
    5.5004   -2.8096    0.0000 C   0  0  0  0  0  0  0  0  0  0  0  0
    6.3451   -1.9899    0.0000 C   0  0  0  0  0  0  0  0  0  0  0  0
    4.5242   -2.2402    0.0000 C   0  0  0  0  0  0  0  0  0  0  0  0
    3.5167   -2.9035    0.0000 C   0  0  0  0  0  0  0  0  0  0  0  0
    3.5292   -3.9485    0.0000 C   0  0  0  0  0  0  0  0  0  0  0  0
    2.5531   -4.5179    0.0000 C   0  0  0  0  0  0  0  0  0  0  0  0
    4.5242   -4.5179    0.0000 C   0  0  0  0  0  0  0  0  0  0  0  0
    0.5819   -4.5242    0.0000 C   0  0  0  0  0  0  0  0  0  0  0  0
    0.5819   -5.6505    0.0000 C   0  0  0  0  0  0  0  0  0  0  0  0
    2.5531   -5.6568    0.0000 C   0  0  0  0  0  0  0  0  0  0  0  0
    4.5242   -5.6568    0.0000 C   0  0  0  0  0  0  0  0  0  0  0  0
    1.5487   -6.2513    0.0000 C   0  0  0  0  0  0  0  0  0  0  0  0
    3.5668   -6.2137    0.0000 C   0  0  0  0  0  0  0  0  0  0  0  0
    0.2628   -8.1004    0.0000 O   0  0  0  0  0  0  0  0  0  0  0  0
    5.4503   -3.9328    0.0000 C   0  0  0  0  0  0  0  0  0  0  0  0
    6.4953   -4.5523    0.0000 O   0  0  0  0  0  0  0  0  0  0  0  0
    1.4736   -4.0267    0.0000 C   0  0  1  0  0  0  0  0  0  0  0  0
    0.8119   -6.9083    0.0000 C   0  0  0  0  0  0  0  0  0  0  0  0
    4.7588   -1.1545    0.0000 O   0  0  0  0  0  0  0  0  0  0  0  0
    0.9949   -4.9653    0.0000 O   0  0  0  0  0  0  0  0  0  0  0  0
  1  5  1  0  0  0  0
  6  7  1  0  0  0  0
  5  7  2  0  0  0  0
  6  8  2  0  0  0  0
  8  9  1  0  0  0  0
  2  9  2  0  0  0  0
  9 10  1  0  0  0  0
 10 11  1  0  0  0  0
 10 12  2  0  0  0  0
 13 14  1  0  0  0  0
 11 15  2  0  0  0  0
 12 16  1  0  0  0  0
  3 16  1  0  0  0  0
 15 17  1  0  0  0  0
  4 17  1  0  0  0  0
 16 18  2  0  0  0  0
 15 18  1  0  0  0  0
 12 20  1  0  0  0  0
  6 20  1  0  0  0  0
 20 21  2  0  0  0  0
 17 14  1  0  0  0  0
 13 22  1  0  0  0  0
 11 22  1  0  0  0  0
 17 23  1  0  0  0  0
 19 23  1  0  0  0  0
  5 24  1  0  0  0  0
  8 24  1  0  0  0  0
 22 25  1  1  0  0  0
 23 25  1  0  0  0  0
M  END
